Test_VLN_Node.Txt

LINE-GROUND and LINE-LINE VOLTAGES BY BUS & NODE

Bus  Node    VLN (kV)   Angle      pu     Base kV    Node-Node   VLL (kV)  Angle      pu

B1 . 1      0.23094 /_    0.0         1     0.400        1-2        0.4 /_   30.0         1
   - 2      0.23094 /_ -120.0         1     0.400        2-3        0.4 /_  -90.0         1
   - 3      0.23094 /_  120.0         1     0.400        3-1        0.4 /_  150.0         1
B2 . 1      0.21709 /_   -2.7   0.94004     0.400        1-2    0.38236 /_   29.1   0.95589
   - 2      0.22836 /_ -120.9   0.98882     0.400        2-3    0.39567 /_  -91.2   0.98918
   - 3      0.22747 /_  118.6   0.98496     0.400        3-1    0.38752 /_  147.2   0.96881
   - 4      0.01224 /_   36.2     0.053     0.400
